/*--------------------------------*- C++ -*----------------------------------*\
| =========                 |                                                 |
| \\      /  F ield         | OpenFOAM: The Open Source CFD Toolbox           |
|  \\    /   O peration     | Version:  2.3.0                                 |
|   \\  /    A nd           | Web:      www.OpenFOAM.org                      |
|    \\/     M anipulation  |                                                 |
\*---------------------------------------------------------------------------*/
FoamFile
{
    version     2.0;
    format      ascii;
    class       dictionary;
    location    "constant";
    object      phaseProperties;
}
// * * * * * * * * * * * * * * * * * * * * * * * * * * * * * * * * * * * * * //

phases (air water);

air
{
    type basic;
    thermoType
    {
        transport   const;
        thermo      eConst;
        equationOfState perfectGas;
    }
    equationOfState
    {
        gamma           1.4;
    }
    specie
    {
        molWeight       28.97;
    }
    transport
    {
        mu              0;              // Viscosity
        Pr              1;              // Prandtl number
    }
    thermodynamics
    {
        Cv          718;           // Heat capacity
        Hf          0.0;
    }

    residualRho     1e-6;
    residualAlpha   1e-6;
}

water
{
    type basic;
    thermoType
    {
        transport   const;
        thermo      eConst;
        equationOfState stiffenedGas;
    }
    equationOfState
    {
        gamma           4.4;
        a               6e8;
    }
    specie
    {
        molWeight       90.885;
    }
    transport
    {
        mu              0;              // Viscosity
        Pr              1;              // Prandtl number
    }
    thermodynamics
    {
        Cv              4182;           // Heat capacity
        Hf              0.0;
    }

    residualRho     1e-6;
    residualAlpha   1e-6;
}



// ************************************************************************* //
