/*--------------------------------*- C++ -*----------------------------------*\
| =========                 |                                                 |
| \\      /  F ield         | OpenFOAM: The Open Source CFD Toolbox           |
|  \\    /   O peration     | Version:  2.3.0                                 |
|   \\  /    A nd           | Web:      www.OpenFOAM.org                      |
|    \\/     M anipulation  |                                                 |
\*---------------------------------------------------------------------------*/
FoamFile
{
    version     2.0;
    format      ascii;
    class       dictionary;
    location    "constant";
    object      phaseProperties;
}
// * * * * * * * * * * * * * * * * * * * * * * * * * * * * * * * * * * * * * //

phases (c4 water);

radiationModel none;

c4
{
    type detonating;
    // values for c-4 from: Alia2006
    reactants
    {
        thermoType
        {
            transport   const;
            thermo      eConst;
            equationOfState idealGas;
        }
        equationOfState
        {
            gamma           1.25;
        }
        specie
        {
            molWeight       28.97;
        }
        transport
        {
            mu              0;              // Viscosity
            Pr              1;              // Prandtl number
        }
        thermodynamics
        {
            Cv              1400;           // Heat capacity
            Hf              0.0;
        }
    }
    products
    {
        thermoType
        {
            transport   const;
            thermo      eConst;
            equationOfState JWL;
        }
        equationOfState
        {
            rho0      1763;
            A         17.04e11;
            B         0.7891e11;
            R1        6.2;
            R2        2.2;
            omega     0.4412;
        }
        specie
        {
            molWeight       55.0;
        }
        transport
        {
            mu              0;              // Viscosity
            Pr              1;              // Prandtl number
        }
        thermodynamics
        {
            Cv              1400;           // Heat capacity
            Hf              0.0;
        }
    }

    activationModel linear;
    initiation
    {
        E0          10.8e9;
        points     ((0 0.1143 0));
        vDet       9000;
    }

    residualRho     1e-6;           // Minimum density of the phase
    residualAlpha   1e-10;          // Minimum volume fraction used for division
}

water
{
    type basic;
    thermoType
    {
        transport   const;
        thermo      eConst;
        equationOfState Tillotson;
    }
    equationOfState
    {
        p0          1e5;
        pCav        5000;
        rho0        1000;
        rhoCav      995.0;
        omega       0.28;
        k           1.33;
        e0          1062720;
        A           2.2e9;
        B           9.94e9;
        C           1.457e10;
    }
    specie
    {
        molWeight       18;
    }
    transport
    {
        mu              0;
        Pr              1;
    }
    thermodynamics
    {
        type        eConst;
        Cv          3690;
        Hf          0;
    }

    residualRho     1e-6;
    residualAlpha   1e-10;
}

// ************************************************************************* //
