*INCLUDE, INPUT=all.msh
*INCLUDE, INPUT=fix1_beam.nam
*INCLUDE, INPUT=interface_beam.nam
*MATERIAL, Name=EL
*ELASTIC
 30e9, 0.2
*DENSITY
 2300
*SOLID SECTION, Elset=Eall, Material=EL
*STEP, NLGEOM, INC=1000000
*DYNAMIC, DIRECT
2E-5, 10.0

** fix on the lower boundary from x to z.
*BOUNDARY
Nfix1, 1, 3
** fix on all nodes for translation in y-dir, rotation about x- and z-axis
*BOUNDARY
Nall, 3
*CLOAD
 Nsurface, 1, 0.0
 Nsurface, 2, 0.0
 Nsurface, 3, 0.0
*NODE FILE
 U
*EL FILE
 S, E
*END STEP
