
/*--------------------------------*- C++ -*----------------------------------*\
  =========                 |
  \\      /  F ield         | OpenFOAM: The Open Source CFD Toolbox
   \\    /   O peration     | Website:  https://openfoam.org
    \\  /    A nd           | Version:  dev
     \\/     M anipulation  |
\*---------------------------------------------------------------------------*/
FoamFile
{
    version     2.0;
    format      ascii;
    class       dictionary;
    location    "constant/heater";
    object      thermophysicalProperties;
}
// * * * * * * * * * * * * * * * * * * * * * * * * * * * * * * * * * * * * * //


type basic;
// Aluminum

thermoType
{
    transport       constIso;
    thermo          eConst;
    equationOfState rhoConst;
}

specie
{
    molWeight       26.98;
}
equationOfState
{
    rho0             2700;
}
transport
{
    kappa           205.5;
}
thermodynamics
{
    Hf              0;
    Cv              800;
}


alpha
{
    type        uniform;
    value       2.31e-05;
}

thermalStress   no;



// ************************************************************************* //
