/*--------------------------------*- C++ -*----------------------------------*\
| =========                 |                                                 |
| \\      /  F ield         | OpenFOAM: The Open Source CFD Toolbox           |
|  \\    /   O peration     | Version:  2.3.0                                 |
|   \\  /    A nd           | Web:      www.OpenFOAM.org                      |
|    \\/     M anipulation  |                                                 |
\*---------------------------------------------------------------------------*/
FoamFile
{
    version     2.0;
    format      ascii;
    class       dictionary;
    location    "constant";
    object      phaseProperties;
}
// * * * * * * * * * * * * * * * * * * * * * * * * * * * * * * * * * * * * * //

type        basic;
thermoType
{
    transport const;
    thermo      eTabulated;
    equationOfState tabulatedMG;
}

specie
{
    molWeight       28.97;
}
transport
{
    mu              0;              // Viscosity
    Pr              1;              // Prandtl number
}
equationOfState
{
    pCoeffs
    {
        file       "constant/p.csv";
        mod         ln;
        delim       ";";
        isReal      false;
        flipTable   false;
    }

    rhoCoeffs
    {
        mod         log10;

        n           7;
        delta       1.0;
        min         -3.0;
        isReal      false;
    }
    eCoeffs
    {
        mod         ln;

        n           40;
        min         11.8748;
        delta       1.0;
        isReal      false;
    }
}
thermodynamics
{
    TCoeffs
    {
        file        "constant/T.csv";
        mod          ln;
        delim       ";";
        isReal      false;
        flipTable   false;
    }

    rhoCoeffs
    {
        mod         log10;
        n           7;
        delta       1.0;
        min         -3.0;
        isReal      false;
    }
    eCoeffs
    {
        mod         ln;
        n           40;
        min         11.8748;
        delta       1.0;
        isReal      false;
    }
}

// ************************************************************************* //
