/*--------------------------------*- C++ -*----------------------------------*\
| =========                 |                                                 |
| \\      /  F ield         | OpenFOAM: The Open Source CFD Toolbox           |
|  \\    /   O peration     | Version:  2.3.0                                 |
|   \\  /    A nd           | Web:      www.OpenFOAM.org                      |
|    \\/     M anipulation  |                                                 |
\*---------------------------------------------------------------------------*/
FoamFile
{
    version     2.0;
    format      ascii;
    class       dictionary;
    location    "constant";
    object      phaseProperties;
}
// * * * * * * * * * * * * * * * * * * * * * * * * * * * * * * * * * * * * * //

phases (gas air);   // List of phases

gas
{
    type basic;
    thermoType
    {
        transport   const;
        thermo      eConst;
        equationOfState idealGas;
    }
    equationOfState
    {
        gamma           1.5;            // Heat capactiy ratio
        a               0;
    }
    specie
    {
        molWeight       28.97;
    }
    transport
    {
        mu              0;
        Pr              1;
    }
    thermodynamics
    {
        Cv          718;
        Hf          0;
    }

    residualRho     1e-6;
    residualAlpha   1e-6;
}

air
{
    type basic;
    thermoType
    {
        transport   const;
        thermo      eConst;
        equationOfState idealGas;
    }
    equationOfState
    {
        gamma           1.4;            // Heat capactiy ratio
        a               0;
    }
    specie
    {
        molWeight       28.97;
    }
    transport
    {
        mu              0;
        Pr              1;
    }
    thermodynamics
    {
        Cv          718;
        Hf          0;
    }

    residualRho     1e-6;
    residualAlpha   1e-6;
}

// ************************************************************************* //
