/*--------------------------------*- C++ -*----------------------------------*\
| =========                 |                                                 |
| \\      /  F ield         | foam-extend: Open Source CFD                    |
|  \\    /   O peration     | Version:     3.0                                |
|   \\  /    A nd           | Web:         http://www.extend-project.de       |
|    \\/     M anipulation  |                                                 |
\*---------------------------------------------------------------------------*/
FoamFile
{
    version     2.0;
    format      ascii;
    class       dictionary;
    object      mechanicalProperties;
}
// * * * * * * * * * * * * * * * * * * * * * * * * * * * * * * * * * * * * * //

planeStress     no;

mechanical
(
    steel
    {
//         type            nonLinearPowerLawPlastic;
        type linearElastic;
//         type neoHookeanElastic;
        E               200e9;
        nu              0.3;
        sigmaY          1e11;
        Hp              0.1;
        k 1000;
        n 0.2;
    }
);

// ************************************************************************* //
