/*--------------------------------*- C++ -*----------------------------------*\
| =========                 |                                                 |
| \\      /  F ield         | OpenFOAM: The Open Source CFD Toolbox           |
|  \\    /   O peration     | Version:  2.3.0                                 |
|   \\  /    A nd           | Web:      www.OpenFOAM.org                      |
|    \\/     M anipulation  |                                                 |
\*---------------------------------------------------------------------------*/
FoamFile
{
    version     2.0;
    format      ascii;
    class       dictionary;
    location    "constant";
    object      phaseProperties;
}
// * * * * * * * * * * * * * * * * * * * * * * * * * * * * * * * * * * * * * //

phases (particles gas);

particles
{
    phaseType        granular;

    diameterModel constant;
    constantDiameterCoeffs
    {
        d           50e-6;
    }

    alphaMax    0.65;
    alphaMinFriction 0.5;

    type basic;
    thermoType
    {
        transport   constIso;
        thermo      eConst;
        equationOfState rhoConst;
    }
    specie
    {
        molWeight 100.0;
    }
    equationOfState
    {
        rho0     1470;
    }
    transport
    {
        kappa       237;
    }
    thermodynamics
    {
        Cv          987;           // Heat capacity
        Hf          0.0;
    }

    residualAlpha 1e-10;
    residualRho   1e-6;

    kineticTheoryCoeffs
    {
        e           0.9;
    }
}

gas
{
    phaseType       multiphase;
    diameterModel   constant;
    constantDiameterCoeffs
    {
        d           1;
    }

    phases (c4 air);

    c4
    {
        type detonating;
        reactants
        {
            thermoType
            {
                transport   const;
                thermo      eConst;
                equationOfState Murnaghan;
            }

            equationOfState
            {
                rho0            1601;
                n               7.4;
                kappa           3.9e11;
                Gamma           0.35;
                gamma           1.35;
                pRef            101298;
            }
            specie
            {
                molWeight           55.0;
            }
            transport
            {
                mu              1.81e-5;              // Viscosity
                Pr              1;              // Prandtl number
            }
            thermodynamics
            {
                Cv          1400;           // Heat capacity
                Hf          0.0;
            }
        }
        products
        {
            thermoType
            {
                transport   const;
                thermo      eConst;
                equationOfState JWL;
            }

            equationOfState
            {
                rho0      1601;
                A         609.77e9;
                B         12.95e9;
                R1        4.50;
                R2        1.4;
                omega     0.25;
            }
            specie
            {
                molWeight           55.0;
            }
            transport
            {
                mu              1.81e-5;              // Viscosity
                Pr              0.7;              // Prandtl number
            }
            thermodynamics
            {
                Cv          1400;           // Heat capacity
                Hf          0.0;
            }
        }
        residualRho     1e-6;           // Minimum density of the phase
        residualAlpha   1e-10;          // Minimum volume fraction used for division

        activationModel linear;
        initiation
        {
            E0              9.0e9;
            points          ((0 -1 0));
            vDet            7850;            // Detonation velocity [m/s]
        }
    }

    air
    {
        calculateDensity yes;
        type basic;
        thermoType
        {
            transport const;
            equationOfState idealGas;
            thermo eConst;
        }
        specie
        {
            molWeight 28.97;
        }
        equationOfState
        {
            gamma           1.4;
        }
        transport
        {
            mu              1.81e-5;              // Viscosity
            Pr              0.7;              // Prandtl number
        }
        thermodynamics
        {
            Cv          718;           // Heat capacity
            Hf          0.0;
        }
        residualRho     1e-6;
        residualAlpha   1e-10;
    }
}

blending
{
    default
    {
        type none;
        continuousPhase gas;
    }
}

interfacialPressure
(
    (gas and particles)
    {
        type single;
        phase gas;
    }
);

interfacialVelocity
(
    (gas and particles)
    {
        type single;
        phase particles;
    }
);

aspectRatio
(
);

drag
(
    (particles in gas)
    {
        type GidaspowErgunWenYu;
        residualRe 1e-3;
        swarmCorrection
        {
            type none;
        }
    }
);

virtualMass
(
);

heatTransfer
(
    (particles in gas)
    {
        type RanzMarshall;
        NuModel Gunn;
    }
);

lift
(
);

wallLubrication
(
);

turbulentDispersion
(
);

kineticTheory
{
    residualAlpha       1e-6;

    radialModel SinclairJackson;
    viscosityModel Syamlal;
    conductivityModel Syamlal;
    granularPressureModel Lun;
    frictionalStressModel Princeton;

    PrincetonCoeffs
    {
        alphaMinFriction        0.5;
        alphaMinFrictionByAlphap 0.9;
        Fr                      0.05;
        eta                     2;
        p                       5;
        phi                     28.5;
        alphaDeltaMin           1e-6;
    }
}
// ************************************************************************* //
