/*--------------------------------*- C++ -*----------------------------------*\
| =========                 |                                                 |
| \\      /  F ield         | OpenFOAM: The Open Source CFD Toolbox           |
|  \\    /   O peration     | Version:  2.3.0                                 |
|   \\  /    A nd           | Web:      www.OpenFOAM.org                      |
|    \\/     M anipulation  |                                                 |
\*---------------------------------------------------------------------------*/
FoamFile
{
    version     2.0;
    format      ascii;
    class       dictionary;
    location    "constant";
    object      phaseProperties;
}
// * * * * * * * * * * * * * * * * * * * * * * * * * * * * * * * * * * * * * //

phases (RDX gas);

RDX
{
    type detonating;
    reactants
    {
        thermoType
        {
            transport   const;
            thermo      eConst;
            equationOfState Murnaghan;
        }
        equationOfState
        {
            rho0            1160;
            n               7.4;
            kappa           3.9e11;
            Gamma           0.35;
            pRef            101298;
        }
        specie
        {
            molWeight       222.12;
        }
        transport
        {
            mu              0;              // Viscosity
            Pr              1;              // Prandtl number
        }
        thermodynamics
        {
            Cv              1130.78;           // Heat capacity
            Hf              0.0;
        }
    }
    products
    {
        thermoType
        {
            transport   const;
            thermo      eConst;
            equationOfState JWL;
        }
        equationOfState
        {
            A               2.9867e11;
            B               4.11706e9;
            R1              4.95;
            R2              1.15;
            C               7.206147e8;
            omega           0.35;
            rho0            1160;
        }
        specie
        {
            molWeight       55.0;
        }
        transport
        {
            mu              0;              // Viscosity
            Pr              1;              // Prandtl number
        }
        thermodynamics
        {
            Cv              1000;           // Heat capacity
            Hf              0.0;
        }
    }

    activationModel programmedIgnition;
    initiation
    {
        // Detonation energy
        E0              4.0e9;

        // Detonation points
        points
        (
            (0 0.02 0)
            (0 0.1 0)
            (0 0.2 0)
            (0 0.3 0)
            (0 0.4 0)
            (0 0.5 0)
        );

        // Delays
        delays
        (
            0.0
            5e-6
            10e-6
            5e-6
            10e-6
            0.0
        );

        // Radii to set (for each point)
        radius 0.01; // Radius of activation (overridden by radii entry)
        radii
        (
            0   // use the closest cell
            0.02
            0.03
            0.015
            0.025
            0.01
        );

        // Detonation velocity
        vDet    7850;

        // Chapman-Jouguet pressure
        Pcj     0.1017e11;

        // Linear and compression activation
        burnModel programmedBeta;

        pMin 1.1e5;
    }

    residualRho     1e-6;           // Minimum density of the phase
    residualAlpha   1e-10;          // Minimum volume fraction used for division
}

gas
{
    type basic;
    thermoType
    {
        transport   const;
        thermo      eConst;
        equationOfState idealGas;
    }
    equationOfState
    {
        gamma           1.4;            // Heat capactiy ratio
    }
    specie
    {
        molWeight       28.97;
    }
    transport
    {
        mu              0;
        Pr              1;
    }
    thermodynamics
    {
        type        eConst;
        Cv          718;
        Hf          0;
    }

    residualRho     1e-6;
    residualAlpha   1e-6;
}


// ************************************************************************* //
